Circuit: * C:\users\tomkys144\Documents\CTU\b231\bsp\prednaska7.asc


Date: Mon Nov  6 15:02:41 2023
Total elapsed time: 0.499 seconds.

tnom = 27
temp = 27
method = trap
totiter = 20004
traniter = 0
tranpoints = 0
accept = 0
rejected = 0
matrix size = 8
fillins = 0
solver = Normal
Avg thread counts: 1.2/0.0/1.4/1.2
Matrix Compiler1:      19 opcodes  2.1/2.2/[2.1]
Matrix Compiler2:      46 opcodes
